*SPEF "ieee 1481-1999"
*DESIGN "sram_wb_wrapper"
*DATE "11:11:11 Fri 11 11, 1111"
*VENDOR "OpenRCX"
*PROGRAM "Parallel Extraction"
*VERSION "1.0"
*DESIGN_FLOW "NAME_SCOPE LOCAL" "PIN_CAP NONE"
*DIVIDER /
*DELIMITER :
*BUS_DELIMITER []
*T_UNIT 1 NS
*C_UNIT 1 PF
*R_UNIT 1 OHM
*L_UNIT 1 HENRY

*NAME_MAP
*1 rst_n
*2 sram_addr_a[0]
*3 sram_addr_a[1]
*4 sram_addr_a[2]
*5 sram_addr_a[3]
*6 sram_addr_a[4]
*7 sram_addr_a[5]
*8 sram_addr_a[6]
*9 sram_addr_a[7]
*10 sram_addr_b[0]
*11 sram_addr_b[1]
*12 sram_addr_b[2]
*13 sram_addr_b[3]
*14 sram_addr_b[4]
*15 sram_addr_b[5]
*16 sram_addr_b[6]
*17 sram_addr_b[7]
*18 sram_csb_a
*19 sram_csb_b
*20 sram_din_b[0]
*21 sram_din_b[10]
*22 sram_din_b[11]
*23 sram_din_b[12]
*24 sram_din_b[13]
*25 sram_din_b[14]
*26 sram_din_b[15]
*27 sram_din_b[16]
*28 sram_din_b[17]
*29 sram_din_b[18]
*30 sram_din_b[19]
*31 sram_din_b[1]
*32 sram_din_b[20]
*33 sram_din_b[21]
*34 sram_din_b[22]
*35 sram_din_b[23]
*36 sram_din_b[24]
*37 sram_din_b[25]
*38 sram_din_b[26]
*39 sram_din_b[27]
*40 sram_din_b[28]
*41 sram_din_b[29]
*42 sram_din_b[2]
*43 sram_din_b[30]
*44 sram_din_b[31]
*45 sram_din_b[3]
*46 sram_din_b[4]
*47 sram_din_b[5]
*48 sram_din_b[6]
*49 sram_din_b[7]
*50 sram_din_b[8]
*51 sram_din_b[9]
*52 sram_mask_b[0]
*53 sram_mask_b[1]
*54 sram_mask_b[2]
*55 sram_mask_b[3]
*56 sram_web_b
*59 wb_ack_o
*60 wb_adr_i[0]
*61 wb_adr_i[1]
*62 wb_adr_i[2]
*63 wb_adr_i[3]
*64 wb_adr_i[4]
*65 wb_adr_i[5]
*66 wb_adr_i[6]
*67 wb_adr_i[7]
*68 wb_clk_i
*69 wb_cyc_i
*70 wb_dat_i[0]
*71 wb_dat_i[10]
*72 wb_dat_i[11]
*73 wb_dat_i[12]
*74 wb_dat_i[13]
*75 wb_dat_i[14]
*76 wb_dat_i[15]
*77 wb_dat_i[16]
*78 wb_dat_i[17]
*79 wb_dat_i[18]
*80 wb_dat_i[19]
*81 wb_dat_i[1]
*82 wb_dat_i[20]
*83 wb_dat_i[21]
*84 wb_dat_i[22]
*85 wb_dat_i[23]
*86 wb_dat_i[24]
*87 wb_dat_i[25]
*88 wb_dat_i[26]
*89 wb_dat_i[27]
*90 wb_dat_i[28]
*91 wb_dat_i[29]
*92 wb_dat_i[2]
*93 wb_dat_i[30]
*94 wb_dat_i[31]
*95 wb_dat_i[3]
*96 wb_dat_i[4]
*97 wb_dat_i[5]
*98 wb_dat_i[6]
*99 wb_dat_i[7]
*100 wb_dat_i[8]
*101 wb_dat_i[9]
*102 wb_sel_i[0]
*103 wb_sel_i[1]
*104 wb_sel_i[2]
*105 wb_sel_i[3]
*106 wb_stb_i
*107 wb_we_i
*108 _00_
*109 _01_
*110 net1
*111 net10
*112 net100
*113 net101
*114 net102
*115 net103
*116 net104
*117 net11
*118 net12
*119 net13
*120 net14
*121 net15
*122 net16
*123 net17
*124 net18
*125 net19
*126 net2
*127 net20
*128 net21
*129 net22
*130 net23
*131 net24
*132 net25
*133 net26
*134 net27
*135 net28
*136 net29
*137 net3
*138 net30
*139 net31
*140 net32
*141 net33
*142 net34
*143 net35
*144 net36
*145 net37
*146 net38
*147 net39
*148 net4
*149 net40
*150 net41
*151 net42
*152 net43
*153 net44
*154 net45
*155 net46
*156 net47
*157 net48
*158 net49
*159 net5
*160 net50
*161 net51
*162 net52
*163 net53
*164 net54
*165 net55
*166 net56
*167 net57
*168 net58
*169 net59
*170 net6
*171 net60
*172 net61
*173 net62
*174 net63
*175 net64
*176 net65
*177 net66
*178 net67
*179 net68
*180 net69
*181 net7
*182 net70
*183 net71
*184 net72
*185 net73
*186 net74
*187 net75
*188 net76
*189 net77
*190 net78
*191 net79
*192 net8
*193 net80
*194 net81
*195 net82
*196 net83
*197 net84
*198 net85
*199 net86
*200 net87
*201 net88
*202 net89
*203 net9
*204 net90
*205 net91
*206 net92
*207 net93
*208 net94
*209 net95
*210 net96
*211 net97
*212 net98
*213 net99
*214 ANTENNA_0
*215 ANTENNA_1
*216 ANTENNA_10
*217 ANTENNA_11
*218 ANTENNA_12
*219 ANTENNA_13
*220 ANTENNA_14
*221 ANTENNA_15
*222 ANTENNA_2
*223 ANTENNA_3
*224 ANTENNA_4
*225 ANTENNA_5
*226 ANTENNA_6
*227 ANTENNA_7
*228 ANTENNA_8
*229 ANTENNA_9
*230 FILLER_0_109
*231 FILLER_0_117
*232 FILLER_0_129
*233 FILLER_0_13
*234 FILLER_0_137
*235 FILLER_0_141
*236 FILLER_0_149
*237 FILLER_0_154
*238 FILLER_0_166
*239 FILLER_0_169
*240 FILLER_0_181
*241 FILLER_0_189
*242 FILLER_0_195
*243 FILLER_0_197
*244 FILLER_0_209
*245 FILLER_0_221
*246 FILLER_0_225
*247 FILLER_0_231
*248 FILLER_0_243
*249 FILLER_0_25
*250 FILLER_0_251
*251 FILLER_0_253
*252 FILLER_0_265
*253 FILLER_0_273
*254 FILLER_0_279
*255 FILLER_0_281
*256 FILLER_0_293
*257 FILLER_0_305
*258 FILLER_0_309
*259 FILLER_0_315
*260 FILLER_0_327
*261 FILLER_0_335
*262 FILLER_0_337
*263 FILLER_0_345
*264 FILLER_0_352
*265 FILLER_0_365
*266 FILLER_0_377
*267 FILLER_0_38
*268 FILLER_0_389
*269 FILLER_0_397
*270 FILLER_0_409
*271 FILLER_0_417
*272 FILLER_0_421
*273 FILLER_0_429
*274 FILLER_0_434
*275 FILLER_0_446
*276 FILLER_0_449
*277 FILLER_0_461
*278 FILLER_0_473
*279 FILLER_0_483
*280 FILLER_0_495
*281 FILLER_0_50
*282 FILLER_0_503
*283 FILLER_0_505
*284 FILLER_0_510
*285 FILLER_0_522
*286 FILLER_0_530
*287 FILLER_0_533
*288 FILLER_0_545
*289 FILLER_0_555
*290 FILLER_0_559
*291 FILLER_0_561
*292 FILLER_0_57
*293 FILLER_0_573
*294 FILLER_0_585
*295 FILLER_0_589
*296 FILLER_0_597
*297 FILLER_0_609
*298 FILLER_0_615
*299 FILLER_0_617
*300 FILLER_0_629
*301 FILLER_0_640
*302 FILLER_0_645
*303 FILLER_0_65
*304 FILLER_0_657
*305 FILLER_0_669
*306 FILLER_0_685
*307 FILLER_0_697
*308 FILLER_0_701
*309 FILLER_0_709
*310 FILLER_0_714
*311 FILLER_0_726
*312 FILLER_0_729
*313 FILLER_0_741
*314 FILLER_0_75
*315 FILLER_0_753
*316 FILLER_0_766
*317 FILLER_0_778
*318 FILLER_0_785
*319 FILLER_0_789
*320 FILLER_0_792
*321 FILLER_0_798
*322 FILLER_0_810
*323 FILLER_0_813
*324 FILLER_0_825
*325 FILLER_0_83
*326 FILLER_0_836
*327 FILLER_0_841
*328 FILLER_0_85
*329 FILLER_0_97
*330 FILLER_100_109
*331 FILLER_100_121
*332 FILLER_100_133
*333 FILLER_100_139
*334 FILLER_100_141
*335 FILLER_100_15
*336 FILLER_100_153
*337 FILLER_100_165
*338 FILLER_100_177
*339 FILLER_100_189
*340 FILLER_100_195
*341 FILLER_100_197
*342 FILLER_100_209
*343 FILLER_100_221
*344 FILLER_100_233
*345 FILLER_100_245
*346 FILLER_100_251
*347 FILLER_100_253
*348 FILLER_100_265
*349 FILLER_100_27
*350 FILLER_100_277
*351 FILLER_100_289
*352 FILLER_100_29
*353 FILLER_100_3
*354 FILLER_100_301
*355 FILLER_100_307
*356 FILLER_100_309
*357 FILLER_100_321
*358 FILLER_100_333
*359 FILLER_100_345
*360 FILLER_100_357
*361 FILLER_100_363
*362 FILLER_100_365
*363 FILLER_100_377
*364 FILLER_100_389
*365 FILLER_100_401
*366 FILLER_100_41
*367 FILLER_100_413
*368 FILLER_100_419
*369 FILLER_100_421
*370 FILLER_100_433
*371 FILLER_100_445
*372 FILLER_100_457
*373 FILLER_100_469
*374 FILLER_100_475
*375 FILLER_100_477
*376 FILLER_100_489
*377 FILLER_100_501
*378 FILLER_100_513
*379 FILLER_100_525
*380 FILLER_100_53
*381 FILLER_100_531
*382 FILLER_100_533
*383 FILLER_100_545
*384 FILLER_100_557
*385 FILLER_100_569
*386 FILLER_100_581
*387 FILLER_100_587
*388 FILLER_100_589
*389 FILLER_100_601
*390 FILLER_100_613
*391 FILLER_100_625
*392 FILLER_100_637
*393 FILLER_100_643
*394 FILLER_100_645
*395 FILLER_100_65
*396 FILLER_100_657
*397 FILLER_100_669
*398 FILLER_100_681
*399 FILLER_100_693
*400 FILLER_100_699
*401 FILLER_100_701
*402 FILLER_100_713
*403 FILLER_100_725
*404 FILLER_100_737
*405 FILLER_100_749
*406 FILLER_100_755
*407 FILLER_100_757
*408 FILLER_100_769
*409 FILLER_100_77
*410 FILLER_100_781
*411 FILLER_100_793
*412 FILLER_100_805
*413 FILLER_100_811
*414 FILLER_100_813
*415 FILLER_100_825
*416 FILLER_100_83
*417 FILLER_100_837
*418 FILLER_100_841
*419 FILLER_100_85
*420 FILLER_100_97
*421 FILLER_101_105
*422 FILLER_101_111
*423 FILLER_101_113
*424 FILLER_101_125
*425 FILLER_101_137
*426 FILLER_101_149
*427 FILLER_101_15
*428 FILLER_101_161
*429 FILLER_101_167
*430 FILLER_101_169
*431 FILLER_101_181
*432 FILLER_101_193
*433 FILLER_101_205
*434 FILLER_101_217
*435 FILLER_101_223
*436 FILLER_101_225
*437 FILLER_101_237
*438 FILLER_101_249
*439 FILLER_101_261
*440 FILLER_101_27
*441 FILLER_101_273
*442 FILLER_101_279
*443 FILLER_101_281
*444 FILLER_101_293
*445 FILLER_101_3
*446 FILLER_101_305
*447 FILLER_101_317
*448 FILLER_101_329
*449 FILLER_101_335
*450 FILLER_101_337
*451 FILLER_101_349
*452 FILLER_101_361
*453 FILLER_101_373
*454 FILLER_101_385
*455 FILLER_101_39
*456 FILLER_101_391
*457 FILLER_101_393
*458 FILLER_101_405
*459 FILLER_101_417
*460 FILLER_101_429
*461 FILLER_101_441
*462 FILLER_101_447
*463 FILLER_101_449
*464 FILLER_101_461
*465 FILLER_101_473
*466 FILLER_101_485
*467 FILLER_101_497
*468 FILLER_101_503
*469 FILLER_101_505
*470 FILLER_101_51
*471 FILLER_101_517
*472 FILLER_101_529
*473 FILLER_101_541
*474 FILLER_101_55
*475 FILLER_101_553
*476 FILLER_101_559
*477 FILLER_101_561
*478 FILLER_101_57
*479 FILLER_101_573
*480 FILLER_101_585
*481 FILLER_101_597
*482 FILLER_101_609
*483 FILLER_101_615
*484 FILLER_101_617
*485 FILLER_101_629
*486 FILLER_101_641
*487 FILLER_101_653
*488 FILLER_101_665
*489 FILLER_101_671
*490 FILLER_101_673
*491 FILLER_101_685
*492 FILLER_101_69
*493 FILLER_101_697
*494 FILLER_101_709
*495 FILLER_101_721
*496 FILLER_101_727
*497 FILLER_101_729
*498 FILLER_101_741
*499 FILLER_101_753
*500 FILLER_101_765
*501 FILLER_101_777
*502 FILLER_101_783
*503 FILLER_101_785
*504 FILLER_101_797
*505 FILLER_101_809
*506 FILLER_101_81
*507 FILLER_101_821
*508 FILLER_101_833
*509 FILLER_101_839
*510 FILLER_101_841
*511 FILLER_101_93
*512 FILLER_102_109
*513 FILLER_102_121
*514 FILLER_102_133
*515 FILLER_102_139
*516 FILLER_102_141
*517 FILLER_102_15
*518 FILLER_102_153
*519 FILLER_102_165
*520 FILLER_102_177
*521 FILLER_102_189
*522 FILLER_102_195
*523 FILLER_102_197
*524 FILLER_102_209
*525 FILLER_102_221
*526 FILLER_102_233
*527 FILLER_102_245
*528 FILLER_102_251
*529 FILLER_102_253
*530 FILLER_102_265
*531 FILLER_102_27
*532 FILLER_102_277
*533 FILLER_102_289
*534 FILLER_102_29
*535 FILLER_102_3
*536 FILLER_102_301
*537 FILLER_102_307
*538 FILLER_102_309
*539 FILLER_102_321
*540 FILLER_102_333
*541 FILLER_102_345
*542 FILLER_102_357
*543 FILLER_102_363
*544 FILLER_102_365
*545 FILLER_102_377
*546 FILLER_102_389
*547 FILLER_102_401
*548 FILLER_102_41
*549 FILLER_102_413
*550 FILLER_102_419
*551 FILLER_102_421
*552 FILLER_102_433
*553 FILLER_102_445
*554 FILLER_102_457
*555 FILLER_102_469
*556 FILLER_102_475
*557 FILLER_102_477
*558 FILLER_102_489
*559 FILLER_102_501
*560 FILLER_102_513
*561 FILLER_102_525
*562 FILLER_102_53
*563 FILLER_102_531
*564 FILLER_102_533
*565 FILLER_102_545
*566 FILLER_102_557
*567 FILLER_102_569
*568 FILLER_102_581
*569 FILLER_102_587
*570 FILLER_102_589
*571 FILLER_102_601
*572 FILLER_102_613
*573 FILLER_102_625
*574 FILLER_102_637
*575 FILLER_102_643
*576 FILLER_102_645
*577 FILLER_102_65
*578 FILLER_102_657
*579 FILLER_102_669
*580 FILLER_102_681
*581 FILLER_102_693
*582 FILLER_102_699
*583 FILLER_102_701
*584 FILLER_102_713
*585 FILLER_102_725
*586 FILLER_102_737
*587 FILLER_102_749
*588 FILLER_102_755
*589 FILLER_102_757
*590 FILLER_102_769
*591 FILLER_102_77
*592 FILLER_102_781
*593 FILLER_102_793
*594 FILLER_102_805
*595 FILLER_102_811
*596 FILLER_102_813
*597 FILLER_102_825
*598 FILLER_102_83
*599 FILLER_102_837
*600 FILLER_102_841
*601 FILLER_102_85
*602 FILLER_102_97
*603 FILLER_103_105
*604 FILLER_103_111
*605 FILLER_103_113
*606 FILLER_103_125
*607 FILLER_103_137
*608 FILLER_103_149
*609 FILLER_103_15
*610 FILLER_103_161
*611 FILLER_103_167
*612 FILLER_103_169
*613 FILLER_103_181
*614 FILLER_103_193
*615 FILLER_103_205
*616 FILLER_103_21
*617 FILLER_103_217
*618 FILLER_103_223
*619 FILLER_103_225
*620 FILLER_103_237
*621 FILLER_103_249
*622 FILLER_103_261
*623 FILLER_103_273
*624 FILLER_103_279
*625 FILLER_103_281
*626 FILLER_103_293
*627 FILLER_103_3
*628 FILLER_103_305
*629 FILLER_103_317
*630 FILLER_103_329
*631 FILLER_103_33
*632 FILLER_103_335
*633 FILLER_103_337
*634 FILLER_103_349
*635 FILLER_103_361
*636 FILLER_103_373
*637 FILLER_103_385
*638 FILLER_103_391
*639 FILLER_103_393
*640 FILLER_103_405
*641 FILLER_103_417
*642 FILLER_103_429
*643 FILLER_103_441
*644 FILLER_103_447
*645 FILLER_103_449
*646 FILLER_103_45
*647 FILLER_103_461
*648 FILLER_103_473
*649 FILLER_103_485
*650 FILLER_103_497
*651 FILLER_103_503
*652 FILLER_103_505
*653 FILLER_103_517
*654 FILLER_103_529
*655 FILLER_103_53
*656 FILLER_103_541
*657 FILLER_103_553
*658 FILLER_103_559
*659 FILLER_103_561
*660 FILLER_103_57
*661 FILLER_103_573
*662 FILLER_103_585
*663 FILLER_103_597
*664 FILLER_103_609
*665 FILLER_103_615
*666 FILLER_103_617
*667 FILLER_103_629
*668 FILLER_103_641
*669 FILLER_103_653
*670 FILLER_103_665
*671 FILLER_103_671
*672 FILLER_103_673
*673 FILLER_103_685
*674 FILLER_103_69
*675 FILLER_103_697
*676 FILLER_103_709
*677 FILLER_103_721
*678 FILLER_103_727
*679 FILLER_103_729
*680 FILLER_103_741
*681 FILLER_103_753
*682 FILLER_103_765
*683 FILLER_103_777
*684 FILLER_103_783
*685 FILLER_103_785
*686 FILLER_103_797
*687 FILLER_103_809
*688 FILLER_103_81
*689 FILLER_103_821
*690 FILLER_103_833
*691 FILLER_103_839
*692 FILLER_103_841
*693 FILLER_103_93
*694 FILLER_104_109
*695 FILLER_104_121
*696 FILLER_104_133
*697 FILLER_104_139
*698 FILLER_104_141
*699 FILLER_104_15
*700 FILLER_104_153
*701 FILLER_104_165
*702 FILLER_104_177
*703 FILLER_104_189
*704 FILLER_104_195
*705 FILLER_104_197
*706 FILLER_104_209
*707 FILLER_104_22
*708 FILLER_104_221
*709 FILLER_104_233
*710 FILLER_104_245
*711 FILLER_104_251
*712 FILLER_104_253
*713 FILLER_104_265
*714 FILLER_104_277
*715 FILLER_104_289
*716 FILLER_104_29
*717 FILLER_104_301
*718 FILLER_104_307
*719 FILLER_104_309
*720 FILLER_104_321
*721 FILLER_104_333
*722 FILLER_104_345
*723 FILLER_104_357
*724 FILLER_104_363
*725 FILLER_104_365
*726 FILLER_104_377
*727 FILLER_104_389
*728 FILLER_104_401
*729 FILLER_104_41
*730 FILLER_104_413
*731 FILLER_104_419
*732 FILLER_104_427
*733 FILLER_104_439
*734 FILLER_104_451
*735 FILLER_104_463
*736 FILLER_104_475
*737 FILLER_104_477
*738 FILLER_104_489
*739 FILLER_104_501
*740 FILLER_104_513
*741 FILLER_104_525
*742 FILLER_104_53
*743 FILLER_104_531
*744 FILLER_104_533
*745 FILLER_104_545
*746 FILLER_104_557
*747 FILLER_104_569
*748 FILLER_104_581
*749 FILLER_104_587
*750 FILLER_104_589
*751 FILLER_104_601
*752 FILLER_104_613
*753 FILLER_104_625
*754 FILLER_104_637
*755 FILLER_104_643
*756 FILLER_104_645
*757 FILLER_104_65
*758 FILLER_104_657
*759 FILLER_104_669
*760 FILLER_104_681
*761 FILLER_104_693
*762 FILLER_104_699
*763 FILLER_104_7
*764 FILLER_104_701
*765 FILLER_104_713
*766 FILLER_104_725
*767 FILLER_104_737
*768 FILLER_104_749
*769 FILLER_104_755
*770 FILLER_104_757
*771 FILLER_104_769
*772 FILLER_104_77
*773 FILLER_104_781
*774 FILLER_104_793
*775 FILLER_104_805
*776 FILLER_104_811
*777 FILLER_104_813
*778 FILLER_104_825
*779 FILLER_104_83
*780 FILLER_104_837
*781 FILLER_104_841
*782 FILLER_104_85
*783 FILLER_104_97
*784 FILLER_105_105
*785 FILLER_105_111
*786 FILLER_105_113
*787 FILLER_105_125
*788 FILLER_105_137
*789 FILLER_105_149
*790 FILLER_105_15
*791 FILLER_105_161
*792 FILLER_105_167
*793 FILLER_105_169
*794 FILLER_105_181
*795 FILLER_105_193
*796 FILLER_105_205
*797 FILLER_105_217
*798 FILLER_105_223
*799 FILLER_105_225
*800 FILLER_105_237
*801 FILLER_105_249
*802 FILLER_105_261
*803 FILLER_105_27
*804 FILLER_105_273
*805 FILLER_105_279
*806 FILLER_105_281
*807 FILLER_105_293
*808 FILLER_105_3
*809 FILLER_105_305
*810 FILLER_105_317
*811 FILLER_105_329
*812 FILLER_105_335
*813 FILLER_105_337
*814 FILLER_105_349
*815 FILLER_105_361
*816 FILLER_105_373
*817 FILLER_105_385
*818 FILLER_105_39
*819 FILLER_105_391
*820 FILLER_105_393
*821 FILLER_105_405
*822 FILLER_105_409
*823 FILLER_105_417
*824 FILLER_105_430
*825 FILLER_105_438
*826 FILLER_105_446
*827 FILLER_105_449
*828 FILLER_105_461
*829 FILLER_105_473
*830 FILLER_105_485
*831 FILLER_105_497
*832 FILLER_105_503
*833 FILLER_105_505
*834 FILLER_105_51
*835 FILLER_105_517
*836 FILLER_105_529
*837 FILLER_105_541
*838 FILLER_105_55
*839 FILLER_105_553
*840 FILLER_105_559
*841 FILLER_105_561
*842 FILLER_105_57
*843 FILLER_105_573
*844 FILLER_105_585
*845 FILLER_105_597
*846 FILLER_105_609
*847 FILLER_105_615
*848 FILLER_105_617
*849 FILLER_105_629
*850 FILLER_105_641
*851 FILLER_105_653
*852 FILLER_105_665
*853 FILLER_105_671
*854 FILLER_105_673
*855 FILLER_105_685
*856 FILLER_105_69
*857 FILLER_105_697
*858 FILLER_105_709
*859 FILLER_105_721
*860 FILLER_105_727
*861 FILLER_105_729
*862 FILLER_105_741
*863 FILLER_105_753
*864 FILLER_105_765
*865 FILLER_105_777
*866 FILLER_105_783
*867 FILLER_105_785
*868 FILLER_105_797
*869 FILLER_105_801
*870 FILLER_105_81
*871 FILLER_105_813
*872 FILLER_105_825
*873 FILLER_105_836
*874 FILLER_105_841
*875 FILLER_105_93
*876 FILLER_106_109
*877 FILLER_106_11
*878 FILLER_106_121
*879 FILLER_106_133
*880 FILLER_106_139
*881 FILLER_106_141
*882 FILLER_106_153
*883 FILLER_106_165
*884 FILLER_106_177
*885 FILLER_106_189
*886 FILLER_106_195
*887 FILLER_106_203
*888 FILLER_106_215
*889 FILLER_106_227
*890 FILLER_106_23
*891 FILLER_106_239
*892 FILLER_106_251
*893 FILLER_106_253
*894 FILLER_106_265
*895 FILLER_106_27
*896 FILLER_106_277
*897 FILLER_106_289
*898 FILLER_106_29
*899 FILLER_106_3
*900 FILLER_106_301
*901 FILLER_106_307
*902 FILLER_106_309
*903 FILLER_106_321
*904 FILLER_106_333
*905 FILLER_106_345
*906 FILLER_106_357
*907 FILLER_106_363
*908 FILLER_106_365
*909 FILLER_106_375
*910 FILLER_106_379
*911 FILLER_106_387
*912 FILLER_106_395
*913 FILLER_106_400
*914 FILLER_106_406
*915 FILLER_106_41
*916 FILLER_106_416
*917 FILLER_106_430
*918 FILLER_106_440
*919 FILLER_106_452
*920 FILLER_106_464
*921 FILLER_106_477
*922 FILLER_106_489
*923 FILLER_106_501
*924 FILLER_106_513
*925 FILLER_106_525
*926 FILLER_106_53
*927 FILLER_106_531
*928 FILLER_106_533
*929 FILLER_106_545
*930 FILLER_106_557
*931 FILLER_106_569
*932 FILLER_106_581
*933 FILLER_106_587
*934 FILLER_106_589
*935 FILLER_106_601
*936 FILLER_106_613
*937 FILLER_106_625
*938 FILLER_106_637
*939 FILLER_106_643
*940 FILLER_106_645
*941 FILLER_106_65
*942 FILLER_106_657
*943 FILLER_106_669
*944 FILLER_106_677
*945 FILLER_106_689
*946 FILLER_106_697
*947 FILLER_106_701
*948 FILLER_106_713
*949 FILLER_106_725
*950 FILLER_106_737
*951 FILLER_106_749
*952 FILLER_106_755
*953 FILLER_106_757
*954 FILLER_106_769
*955 FILLER_106_77
*956 FILLER_106_781
*957 FILLER_106_793
*958 FILLER_106_805
*959 FILLER_106_811
*960 FILLER_106_813
*961 FILLER_106_825
*962 FILLER_106_83
*963 FILLER_106_831
*964 FILLER_106_838
*965 FILLER_106_85
*966 FILLER_106_97
*967 FILLER_107_105
*968 FILLER_107_111
*969 FILLER_107_113
*970 FILLER_107_125
*971 FILLER_107_137
*972 FILLER_107_149
*973 FILLER_107_15
*974 FILLER_107_161
*975 FILLER_107_167
*976 FILLER_107_169
*977 FILLER_107_181
*978 FILLER_107_193
*979 FILLER_107_205
*980 FILLER_107_217
*981 FILLER_107_223
*982 FILLER_107_225
*983 FILLER_107_237
*984 FILLER_107_249
*985 FILLER_107_261
*986 FILLER_107_27
*987 FILLER_107_273
*988 FILLER_107_279
*989 FILLER_107_281
*990 FILLER_107_293
*991 FILLER_107_3
*992 FILLER_107_305
*993 FILLER_107_317
*994 FILLER_107_329
*995 FILLER_107_335
*996 FILLER_107_337
*997 FILLER_107_349
*998 FILLER_107_361
*999 FILLER_107_373
*1000 FILLER_107_385
*1001 FILLER_107_39
*1002 FILLER_107_391
*1003 FILLER_107_393
*1004 FILLER_107_405
*1005 FILLER_107_417
*1006 FILLER_107_427
*1007 FILLER_107_437
*1008 FILLER_107_445
*1009 FILLER_107_449
*1010 FILLER_107_461
*1011 FILLER_107_473
*1012 FILLER_107_485
*1013 FILLER_107_497
*1014 FILLER_107_503
*1015 FILLER_107_505
*1016 FILLER_107_51
*1017 FILLER_107_517
*1018 FILLER_107_529
*1019 FILLER_107_541
*1020 FILLER_107_55
*1021 FILLER_107_553
*1022 FILLER_107_559
*1023 FILLER_107_561
*1024 FILLER_107_57
*1025 FILLER_107_573
*1026 FILLER_107_585
*1027 FILLER_107_597
*1028 FILLER_107_609
*1029 FILLER_107_615
*1030 FILLER_107_617
*1031 FILLER_107_629
*1032 FILLER_107_641
*1033 FILLER_107_653
*1034 FILLER_107_665
*1035 FILLER_107_671
*1036 FILLER_107_673
*1037 FILLER_107_685
*1038 FILLER_107_69
*1039 FILLER_107_697
*1040 FILLER_107_709
*1041 FILLER_107_721
*1042 FILLER_107_727
*1043 FILLER_107_729
*1044 FILLER_107_741
*1045 FILLER_107_753
*1046 FILLER_107_765
*1047 FILLER_107_777
*1048 FILLER_107_783
*1049 FILLER_107_785
*1050 FILLER_107_797
*1051 FILLER_107_809
*1052 FILLER_107_81
*1053 FILLER_107_821
*1054 FILLER_107_833
*1055 FILLER_107_839
*1056 FILLER_107_841
*1057 FILLER_107_93
*1058 FILLER_108_109
*1059 FILLER_108_121
*1060 FILLER_108_133
*1061 FILLER_108_139
*1062 FILLER_108_141
*1063 FILLER_108_15
*1064 FILLER_108_153
*1065 FILLER_108_165
*1066 FILLER_108_177
*1067 FILLER_108_189
*1068 FILLER_108_195
*1069 FILLER_108_197
*1070 FILLER_108_209
*1071 FILLER_108_221
*1072 FILLER_108_233
*1073 FILLER_108_245
*1074 FILLER_108_251
*1075 FILLER_108_253
*1076 FILLER_108_265
*1077 FILLER_108_27
*1078 FILLER_108_277
*1079 FILLER_108_289
*1080 FILLER_108_29
*1081 FILLER_108_3
*1082 FILLER_108_301
*1083 FILLER_108_307
*1084 FILLER_108_309
*1085 FILLER_108_321
*1086 FILLER_108_333
*1087 FILLER_108_345
*1088 FILLER_108_357
*1089 FILLER_108_363
*1090 FILLER_108_365
*1091 FILLER_108_377
*1092 FILLER_108_389
*1093 FILLER_108_401
*1094 FILLER_108_41
*1095 FILLER_108_413
*1096 FILLER_108_419
*1097 FILLER_108_427
*1098 FILLER_108_439
*1099 FILLER_108_451
*1100 FILLER_108_463
*1101 FILLER_108_475
*1102 FILLER_108_477
*1103 FILLER_108_489
*1104 FILLER_108_501
*1105 FILLER_108_513
*1106 FILLER_108_525
*1107 FILLER_108_53
*1108 FILLER_108_531
*1109 FILLER_108_533
*1110 FILLER_108_545
*1111 FILLER_108_557
*1112 FILLER_108_569
*1113 FILLER_108_581
*1114 FILLER_108_587
*1115 FILLER_108_589
*1116 FILLER_108_601
*1117 FILLER_108_613
*1118 FILLER_108_625
*1119 FILLER_108_637
*1120 FILLER_108_643
*1121 FILLER_108_645
*1122 FILLER_108_65
*1123 FILLER_108_657
*1124 FILLER_108_669
*1125 FILLER_108_681
*1126 FILLER_108_693
*1127 FILLER_108_699
*1128 FILLER_108_701
*1129 FILLER_108_713
*1130 FILLER_108_725
*1131 FILLER_108_737
*1132 FILLER_108_749
*1133 FILLER_108_755
*1134 FILLER_108_757
*1135 FILLER_108_769
*1136 FILLER_108_77
*1137 FILLER_108_781
*1138 FILLER_108_793
*1139 FILLER_108_805
*1140 FILLER_108_811
*1141 FILLER_108_813
*1142 FILLER_108_825
*1143 FILLER_108_83
*1144 FILLER_108_837
*1145 FILLER_108_841
*1146 FILLER_108_85
*1147 FILLER_108_97
*1148 FILLER_109_105
*1149 FILLER_109_111
*1150 FILLER_109_113
*1151 FILLER_109_125
*1152 FILLER_109_137
*1153 FILLER_109_149
*1154 FILLER_109_15
*1155 FILLER_109_161
*1156 FILLER_109_167
*1157 FILLER_109_169
*1158 FILLER_109_181
*1159 FILLER_109_193
*1160 FILLER_109_205
*1161 FILLER_109_217
*1162 FILLER_109_223
*1163 FILLER_109_225
*1164 FILLER_109_237
*1165 FILLER_109_249
*1166 FILLER_109_261
*1167 FILLER_109_27
*1168 FILLER_109_273
*1169 FILLER_109_279
*1170 FILLER_109_281
*1171 FILLER_109_293
*1172 FILLER_109_3
*1173 FILLER_109_305
*1174 FILLER_109_317
*1175 FILLER_109_329
*1176 FILLER_109_335
*1177 FILLER_109_337
*1178 FILLER_109_349
*1179 FILLER_109_361
*1180 FILLER_109_373
*1181 FILLER_109_385
*1182 FILLER_109_39
*1183 FILLER_109_391
*1184 FILLER_109_393
*1185 FILLER_109_405
*1186 FILLER_109_417
*1187 FILLER_109_429
*1188 FILLER_109_441
*1189 FILLER_109_447
*1190 FILLER_109_449
*1191 FILLER_109_461
*1192 FILLER_109_473
*1193 FILLER_109_485
*1194 FILLER_109_497
*1195 FILLER_109_503
*1196 FILLER_109_505
*1197 FILLER_109_51
*1198 FILLER_109_517
*1199 FILLER_109_529
*1200 FILLER_109_541
*1201 FILLER_109_55
*1202 FILLER_109_553
*1203 FILLER_109_559
*1204 FILLER_109_561
*1205 FILLER_109_57
*1206 FILLER_109_573
*1207 FILLER_109_585
*1208 FILLER_109_597
*1209 FILLER_109_609
*1210 FILLER_109_615
*1211 FILLER_109_617
*1212 FILLER_109_629
*1213 FILLER_109_641
*1214 FILLER_109_653
*1215 FILLER_109_665
*1216 FILLER_109_671
*1217 FILLER_109_673
*1218 FILLER_109_685
*1219 FILLER_109_69
*1220 FILLER_109_697
*1221 FILLER_109_709
*1222 FILLER_109_721
*1223 FILLER_109_727
*1224 FILLER_109_729
*1225 FILLER_109_741
*1226 FILLER_109_753
*1227 FILLER_109_765
*1228 FILLER_109_777
*1229 FILLER_109_783
*1230 FILLER_109_785
*1231 FILLER_109_797
*1232 FILLER_109_809
*1233 FILLER_109_81
*1234 FILLER_109_821
*1235 FILLER_109_833
*1236 FILLER_109_839
*1237 FILLER_109_841
*1238 FILLER_109_93
*1239 FILLER_10_109
*1240 FILLER_10_121
*1241 FILLER_10_133
*1242 FILLER_10_139
*1243 FILLER_10_141
*1244 FILLER_10_153
*1245 FILLER_10_165
*1246 FILLER_10_177
*1247 FILLER_10_189
*1248 FILLER_10_19
*1249 FILLER_10_195
*1250 FILLER_10_197
*1251 FILLER_10_209
*1252 FILLER_10_221
*1253 FILLER_10_233
*1254 FILLER_10_245
*1255 FILLER_10_251
*1256 FILLER_10_253
*1257 FILLER_10_265
*1258 FILLER_10_27
*1259 FILLER_10_277
*1260 FILLER_10_289
*1261 FILLER_10_29
*1262 FILLER_10_301
*1263 FILLER_10_307
*1264 FILLER_10_309
*1265 FILLER_10_321
*1266 FILLER_10_333
*1267 FILLER_10_345
*1268 FILLER_10_357
*1269 FILLER_10_363
*1270 FILLER_10_365
*1271 FILLER_10_377
*1272 FILLER_10_389
*1273 FILLER_10_401
*1274 FILLER_10_41
*1275 FILLER_10_413
*1276 FILLER_10_419
*1277 FILLER_10_421
*1278 FILLER_10_433
*1279 FILLER_10_445
*1280 FILLER_10_457
*1281 FILLER_10_469
*1282 FILLER_10_475
*1283 FILLER_10_477
*1284 FILLER_10_489
*1285 FILLER_10_501
*1286 FILLER_10_513
*1287 FILLER_10_525
*1288 FILLER_10_53
*1289 FILLER_10_531
*1290 FILLER_10_533
*1291 FILLER_10_545
*1292 FILLER_10_557
*1293 FILLER_10_569
*1294 FILLER_10_581
*1295 FILLER_10_587
*1296 FILLER_10_589
*1297 FILLER_10_601
*1298 FILLER_10_613
*1299 FILLER_10_625
*1300 FILLER_10_637
*1301 FILLER_10_643
*1302 FILLER_10_645
*1303 FILLER_10_65
*1304 FILLER_10_657
*1305 FILLER_10_669
*1306 FILLER_10_681
*1307 FILLER_10_693
*1308 FILLER_10_699
*1309 FILLER_10_7
*1310 FILLER_10_701
*1311 FILLER_10_713
*1312 FILLER_10_725
*1313 FILLER_10_737
*1314 FILLER_10_749
*1315 FILLER_10_755
*1316 FILLER_10_757
*1317 FILLER_10_769
*1318 FILLER_10_77
*1319 FILLER_10_781
*1320 FILLER_10_793
*1321 FILLER_10_805
*1322 FILLER_10_811
*1323 FILLER_10_813
*1324 FILLER_10_825
*1325 FILLER_10_83
*1326 FILLER_10_837
*1327 FILLER_10_841
*1328 FILLER_10_85
*1329 FILLER_10_97
*1330 FILLER_110_109
*1331 FILLER_110_121
*1332 FILLER_110_133
*1333 FILLER_110_139
*1334 FILLER_110_141
*1335 FILLER_110_15
*1336 FILLER_110_153
*1337 FILLER_110_165
*1338 FILLER_110_177
*1339 FILLER_110_189
*1340 FILLER_110_195
*1341 FILLER_110_197
*1342 FILLER_110_209
*1343 FILLER_110_221
*1344 FILLER_110_233
*1345 FILLER_110_245
*1346 FILLER_110_251
*1347 FILLER_110_253
*1348 FILLER_110_265
*1349 FILLER_110_27
*1350 FILLER_110_277
*1351 FILLER_110_289
*1352 FILLER_110_29
*1353 FILLER_110_3
*1354 FILLER_110_301
*1355 FILLER_110_307
*1356 FILLER_110_309
*1357 FILLER_110_321
*1358 FILLER_110_333
*1359 FILLER_110_345
*1360 FILLER_110_357
*1361 FILLER_110_363
*1362 FILLER_110_365
*1363 FILLER_110_377
*1364 FILLER_110_389
*1365 FILLER_110_401
*1366 FILLER_110_41
*1367 FILLER_110_413
*1368 FILLER_110_419
*1369 FILLER_110_421
*1370 FILLER_110_433
*1371 FILLER_110_445
*1372 FILLER_110_457
*1373 FILLER_110_469
*1374 FILLER_110_475
*1375 FILLER_110_477
*1376 FILLER_110_489
*1377 FILLER_110_501
*1378 FILLER_110_513
*1379 FILLER_110_525
*1380 FILLER_110_53
*1381 FILLER_110_531
*1382 FILLER_110_533
*1383 FILLER_110_545
*1384 FILLER_110_557
*1385 FILLER_110_569
*1386 FILLER_110_581
*1387 FILLER_110_587
*1388 FILLER_110_589
*1389 FILLER_110_601
*1390 FILLER_110_613
*1391 FILLER_110_625
*1392 FILLER_110_637
*1393 FILLER_110_643
*1394 FILLER_110_645
*1395 FILLER_110_65
*1396 FILLER_110_657
*1397 FILLER_110_669
*1398 FILLER_110_681
*1399 FILLER_110_693
*1400 FILLER_110_699
*1401 FILLER_110_701
*1402 FILLER_110_713
*1403 FILLER_110_725
*1404 FILLER_110_737
*1405 FILLER_110_749
*1406 FILLER_110_755
*1407 FILLER_110_757
*1408 FILLER_110_769
*1409 FILLER_110_77
*1410 FILLER_110_781
*1411 FILLER_110_793
*1412 FILLER_110_805
*1413 FILLER_110_811
*1414 FILLER_110_813
*1415 FILLER_110_825
*1416 FILLER_110_83
*1417 FILLER_110_837
*1418 FILLER_110_841
*1419 FILLER_110_85
*1420 FILLER_110_97
*1421 FILLER_111_105
*1422 FILLER_111_111
*1423 FILLER_111_113
*1424 FILLER_111_125
*1425 FILLER_111_137
*1426 FILLER_111_149
*1427 FILLER_111_161
*1428 FILLER_111_167
*1429 FILLER_111_169
*1430 FILLER_111_181
*1431 FILLER_111_19
*1432 FILLER_111_193
*1433 FILLER_111_205
*1434 FILLER_111_217
*1435 FILLER_111_223
*1436 FILLER_111_225
*1437 FILLER_111_237
*1438 FILLER_111_249
*1439 FILLER_111_261
*1440 FILLER_111_273
*1441 FILLER_111_279
*1442 FILLER_111_281
*1443 FILLER_111_293
*1444 FILLER_111_305
*1445 FILLER_111_31
*1446 FILLER_111_317
*1447 FILLER_111_329
*1448 FILLER_111_335
*1449 FILLER_111_337
*1450 FILLER_111_349
*1451 FILLER_111_361
*1452 FILLER_111_373
*1453 FILLER_111_385
*1454 FILLER_111_391
*1455 FILLER_111_393
*1456 FILLER_111_405
*1457 FILLER_111_417
*1458 FILLER_111_429
*1459 FILLER_111_43
*1460 FILLER_111_441
*1461 FILLER_111_447
*1462 FILLER_111_449
*1463 FILLER_111_461
*1464 FILLER_111_473
*1465 FILLER_111_485
*1466 FILLER_111_497
*1467 FILLER_111_503
*1468 FILLER_111_505
*1469 FILLER_111_517
*1470 FILLER_111_529
*1471 FILLER_111_541
*1472 FILLER_111_55
*1473 FILLER_111_553
*1474 FILLER_111_559
*1475 FILLER_111_561
*1476 FILLER_111_57
*1477 FILLER_111_573
*1478 FILLER_111_585
*1479 FILLER_111_597
*1480 FILLER_111_609
*1481 FILLER_111_615
*1482 FILLER_111_617
*1483 FILLER_111_629
*1484 FILLER_111_641
*1485 FILLER_111_653
*1486 FILLER_111_665
*1487 FILLER_111_671
*1488 FILLER_111_673
*1489 FILLER_111_685
*1490 FILLER_111_69
*1491 FILLER_111_697
*1492 FILLER_111_7
*1493 FILLER_111_709
*1494 FILLER_111_721
*1495 FILLER_111_727
*1496 FILLER_111_729
*1497 FILLER_111_741
*1498 FILLER_111_753
*1499 FILLER_111_765
*1500 FILLER_111_777
*1501 FILLER_111_783
*1502 FILLER_111_785
*1503 FILLER_111_797
*1504 FILLER_111_809
*1505 FILLER_111_81
*1506 FILLER_111_821
*1507 FILLER_111_833
*1508 FILLER_111_839
*1509 FILLER_111_841
*1510 FILLER_111_93
*1511 FILLER_112_109
*1512 FILLER_112_121
*1513 FILLER_112_133
*1514 FILLER_112_139
*1515 FILLER_112_141
*1516 FILLER_112_15
*1517 FILLER_112_153
*1518 FILLER_112_165
*1519 FILLER_112_177
*1520 FILLER_112_189
*1521 FILLER_112_195
*1522 FILLER_112_197
*1523 FILLER_112_209
*1524 FILLER_112_221
*1525 FILLER_112_233
*1526 FILLER_112_245
*1527 FILLER_112_251
*1528 FILLER_112_253
*1529 FILLER_112_265
*1530 FILLER_112_27
*1531 FILLER_112_277
*1532 FILLER_112_289
*1533 FILLER_112_29
*1534 FILLER_112_3
*1535 FILLER_112_301
*1536 FILLER_112_307
*1537 FILLER_112_309
*1538 FILLER_112_321
*1539 FILLER_112_333
*1540 FILLER_112_345
*1541 FILLER_112_357
*1542 FILLER_112_363
*1543 FILLER_112_365
*1544 FILLER_112_377
*1545 FILLER_112_389
*1546 FILLER_112_401
*1547 FILLER_112_41